<configuration>

<input>
    <net-file value="test4.net.xml"/>
    <route-files value="test4.rou.xml"/>
</input>
<time>
    <begin value="0"/>
    <end value="200000"/>
</time>

</configuration>
