<?xml version="1.0" encoding="UTF-8"?>

<!-- generated on 2023-11-29 01:17:43 by Eclipse SUMO netedit Version 1.18.0
<configuration xmlns:xsi="http://www.w3.org/2001/XMLSchema-instance" xsi:noNamespaceSchemaLocation="http://sumo.dlr.de/xsd/neteditConfiguration.xsd">

    <input>
        <sumo-net-file value="C:\pytorch_testbed\test2.net.xml"/>
    </input>

    <output>
        <output-file value="C:\pytorch_testbed\test2.net.xml"/>
    </output>

    <processing>
        <offset.disable-normalization value="true"/>
    </processing>

    <junctions>
        <no-turnarounds value="true"/>
    </junctions>

    <netedit>
        <new-network value="false"/>
    </netedit>

</configuration>
-->

<net version="1.16" junctionCornerDetail="5" limitTurnSpeed="5.50" xmlns:xsi="http://www.w3.org/2001/XMLSchema-instance" xsi:noNamespaceSchemaLocation="http://sumo.dlr.de/xsd/net_file.xsd">

    <location netOffset="0.00,0.00" convBoundary="-24.14,9.29,154.65,89.14" origBoundary="10000000000.00,10000000000.00,-10000000000.00,-10000000000.00" projParameter="!"/>

    <edge id=":J1_0" function="internal">
        <lane id=":J1_0_0" index="0" speed="6.53" length="8.96" shape="11.17,48.16 13.58,47.82 15.32,46.78 16.39,45.05 16.79,42.62"/>
    </edge>
    <edge id=":J1_1" function="internal">
        <lane id=":J1_1_0" index="0" speed="13.89" length="14.18" shape="11.17,48.16 25.35,48.18"/>
    </edge>
    <edge id=":J1_2" function="internal">
        <lane id=":J1_2_0" index="0" speed="7.20" length="11.54" shape="11.17,48.16 14.97,48.52 17.66,49.57 19.24,51.31 19.70,53.75"/>
    </edge>
    <edge id=":J2_0" function="internal">
        <lane id=":J2_0_0" index="0" speed="3.90" length="2.58" shape="18.78,83.82 18.86,84.52 19.15,85.03 19.63,85.35 20.33,85.47"/>
    </edge>
    <edge id=":J4_0" function="internal">
        <lane id=":J4_0_0" index="0" speed="6.50" length="9.03" shape="50.52,48.19 52.97,47.84 54.72,46.79 55.77,45.04 56.11,42.58"/>
    </edge>
    <edge id=":J4_1" function="internal">
        <lane id=":J4_1_0" index="0" speed="13.89" length="14.42" shape="50.52,48.19 64.94,48.21"/>
    </edge>
    <edge id=":J4_2" function="internal">
        <lane id=":J4_2_0" index="0" speed="7.25" length="11.72" shape="50.52,48.19 54.39,48.54 57.12,49.60 58.73,51.37 59.21,53.84"/>
    </edge>
    <edge id=":J5_0" function="internal">
        <lane id=":J5_0_0" index="0" speed="3.90" length="2.56" shape="17.51,10.26 17.63,9.57 17.93,9.08 18.43,8.79 19.13,8.70"/>
    </edge>
    <edge id=":J6_0" function="internal">
        <lane id=":J6_0_0" index="0" speed="6.52" length="8.99" shape="97.77,48.31 100.20,47.97 101.95,46.93 103.01,45.19 103.39,42.76"/>
    </edge>
    <edge id=":J6_1" function="internal">
        <lane id=":J6_1_0" index="0" speed="13.89" length="14.26" shape="97.77,48.31 112.03,48.27"/>
    </edge>
    <edge id=":J6_2" function="internal">
        <lane id=":J6_2_0" index="0" speed="7.28" length="11.62" shape="97.77,48.31 101.59,48.67 104.31,49.72 105.93,51.47 106.46,53.90"/>
    </edge>
    <edge id=":J8_0" function="internal">
        <lane id=":J8_0_0" index="0" speed="6.53" length="4.11" shape="56.00,14.64 56.34,12.24 57.20,10.78"/>
    </edge>
    <edge id=":J8_2" function="internal">
        <lane id=":J8_2_0" index="0" speed="6.53" length="4.80" shape="57.20,10.78 57.37,10.50 59.09,9.43 61.50,9.02"/>
    </edge>
    <edge id=":J8_1" function="internal">
        <lane id=":J8_1_0" index="0" speed="13.89" length="10.99" shape="50.51,9.05 61.50,9.02"/>
    </edge>
    <edge id=":J9_0" function="internal">
        <lane id=":J9_0_0" index="0" speed="6.48" length="9.03" shape="58.39,81.08 58.67,83.54 59.67,85.32 61.39,86.40 63.84,86.80"/>
    </edge>
    <edge id=":J9_1" function="internal">
        <lane id=":J9_1_0" index="0" speed="13.89" length="11.22" shape="52.62,86.54 63.84,86.80"/>
    </edge>

    <edge id="E0" from="J0" to="J1" priority="-1">
        <lane id="E0_0" index="0" speed="13.89" length="35.30" shape="-24.13,48.06 11.17,48.16"/>
    </edge>
    <edge id="E1" from="J1" to="J2" priority="-1">
        <lane id="E1_0" index="0" speed="13.89" length="30.09" shape="19.70,53.75 18.78,83.82"/>
    </edge>
    <edge id="E10" from="J2" to="J9" priority="-1">
        <lane id="E10_0" index="0" speed="13.89" length="32.31" shape="20.33,85.47 52.62,86.54"/>
    </edge>
    <edge id="E11" from="J9" to="J10" priority="-1">
        <lane id="E11_0" index="0" speed="13.89" length="39.26" shape="63.84,86.80 103.10,87.51"/>
    </edge>
    <edge id="E12" from="J5" to="J8" priority="-1">
        <lane id="E12_0" index="0" speed="13.89" length="31.38" shape="19.13,8.70 50.51,9.05"/>
    </edge>
    <edge id="E13" from="J8" to="J11" priority="-1">
        <lane id="E13_0" index="0" speed="13.89" length="39.24" shape="61.50,9.02 100.72,7.83"/>
    </edge>
    <edge id="E2" from="J1" to="J4" priority="-1">
        <lane id="E2_0" index="0" speed="13.89" length="25.17" shape="25.35,48.18 50.52,48.19"/>
    </edge>
    <edge id="E3" from="J1" to="J5" priority="-1">
        <lane id="E3_0" index="0" speed="13.89" length="32.36" shape="16.79,42.62 17.51,10.26"/>
    </edge>
    <edge id="E4" from="J4" to="J6" priority="-1">
        <lane id="E4_0" index="0" speed="13.89" length="32.84" shape="64.94,48.21 97.77,48.31"/>
    </edge>
    <edge id="E5" from="J6" to="J7" priority="-1">
        <lane id="E5_0" index="0" speed="13.89" length="42.61" shape="112.03,48.27 154.64,47.90"/>
    </edge>
    <edge id="E6" from="J4" to="J8" priority="-1">
        <lane id="E6_0" index="0" speed="13.89" length="27.95" shape="56.11,42.58 56.00,14.64"/>
    </edge>
    <edge id="E7" from="J4" to="J9" priority="-1">
        <lane id="E7_0" index="0" speed="13.89" length="27.26" shape="59.21,53.84 58.39,81.08"/>
    </edge>
    <edge id="E8" from="J6" to="J10" priority="-1">
        <lane id="E8_0" index="0" speed="13.89" length="30.55" shape="106.46,53.90 106.23,84.45"/>
    </edge>
    <edge id="E9" from="J6" to="J11" priority="-1">
        <lane id="E9_0" index="0" speed="13.89" length="31.85" shape="103.39,42.76 103.84,10.91"/>
    </edge>

    <junction id="J0" type="dead_end" x="-24.14" y="49.66" incLanes="" intLanes="" shape="-24.14,49.66 -24.13,46.46"/>
    <junction id="J1" type="priority" x="18.23" y="49.78" incLanes="E0_0" intLanes=":J1_0_0 :J1_1_0 :J1_2_0" shape="25.35,49.78 25.35,46.58 23.20,46.47 21.44,46.14 20.08,45.60 19.12,44.84 18.55,43.86 18.39,42.66 15.19,42.58 14.70,44.80 14.14,45.57 13.36,46.12 12.38,46.45 11.17,46.56 11.16,49.76 13.32,49.87 15.07,50.20 16.43,50.75 17.39,51.52 17.95,52.50 18.11,53.70 21.30,53.80 21.81,51.57 22.38,50.78 23.16,50.23 24.15,49.89">
        <request index="0" response="000" foes="000" cont="0"/>
        <request index="1" response="000" foes="000" cont="0"/>
        <request index="2" response="000" foes="000" cont="0"/>
    </junction>
    <junction id="J10" type="dead_end" x="104.60" y="89.14" incLanes="E8_0 E11_0" intLanes="" shape="107.83,84.46 104.63,84.44 104.46,85.27 104.25,85.55 103.96,85.76 103.58,85.87 103.12,85.91 103.07,89.11 105.70,88.63 106.63,87.99 107.29,87.08 107.69,85.90"/>
    <junction id="J11" type="dead_end" x="105.47" y="9.29" incLanes="E13_0 E9_0" intLanes="" shape="100.67,6.23 100.77,9.43 101.60,9.57 101.89,9.77 102.09,10.06 102.21,10.43 102.25,10.88 105.44,10.93 104.94,8.25 104.29,7.33 103.35,6.69 102.15,6.32"/>
    <junction id="J2" type="priority" x="17.09" y="86.97" incLanes="E1_0" intLanes=":J2_0_0" shape="20.28,87.07 20.38,83.87 17.18,83.77 17.48,85.56 17.91,86.19 18.52,86.66 19.30,86.95">
        <request index="0" response="0" foes="0" cont="0"/>
    </junction>
    <junction id="J4" type="priority" x="57.73" y="49.79" incLanes="E2_0" intLanes=":J4_0_0 :J4_1_0 :J4_2_0" shape="64.93,49.81 64.94,46.61 62.74,46.49 60.93,46.15 59.52,45.59 58.52,44.81 57.91,43.80 57.71,42.58 54.51,42.59 54.07,44.81 53.52,45.59 52.74,46.14 51.74,46.48 50.52,46.59 50.52,49.79 52.72,49.90 54.51,50.23 55.90,50.79 56.88,51.57 57.45,52.57 57.61,53.79 60.81,53.88 61.32,51.62 61.90,50.82 62.70,50.26 63.71,49.92">
        <request index="0" response="000" foes="000" cont="0"/>
        <request index="1" response="000" foes="000" cont="0"/>
        <request index="2" response="000" foes="000" cont="0"/>
    </junction>
    <junction id="J5" type="priority" x="19.11" y="10.30" incLanes="E3_0" intLanes=":J5_0_0" shape="19.11,10.30 19.15,7.10 17.38,7.43 16.76,7.86 16.30,8.47 16.02,9.26 15.91,10.23">
        <request index="0" response="0" foes="0" cont="0"/>
    </junction>
    <junction id="J6" type="priority" x="104.89" y="49.93" incLanes="E4_0" intLanes=":J6_0_0 :J6_1_0 :J6_2_0" shape="112.05,49.87 112.02,46.67 109.85,46.58 108.09,46.27 106.72,45.73 105.75,44.97 105.17,43.99 104.99,42.78 101.79,42.73 101.32,44.95 100.76,45.72 99.98,46.28 98.99,46.61 97.78,46.71 97.77,49.91 99.94,50.03 101.72,50.36 103.10,50.92 104.09,51.69 104.67,52.68 104.86,53.89 108.06,53.91 108.52,51.68 109.07,50.90 109.84,50.34 110.84,49.99">
        <request index="0" response="000" foes="000" cont="0"/>
        <request index="1" response="000" foes="000" cont="0"/>
        <request index="2" response="000" foes="000" cont="0"/>
    </junction>
    <junction id="J7" type="dead_end" x="154.65" y="49.50" incLanes="E5_0" intLanes="" shape="154.62,46.30 154.65,49.50"/>
    <junction id="J8" type="priority" x="57.59" y="10.73" incLanes="E6_0 E12_0" intLanes=":J8_2_0 :J8_1_0" shape="54.40,14.64 57.60,14.63 58.03,12.45 58.58,11.68 59.35,11.11 60.34,10.76 61.55,10.61 61.45,7.42 50.53,7.45 50.49,10.65 52.66,11.12 53.42,11.67 53.96,12.45 54.29,13.44">
        <request index="0" response="10" foes="10" cont="1"/>
        <request index="1" response="00" foes="01" cont="0"/>
    </junction>
    <junction id="J9" type="priority" x="56.58" y="88.27" incLanes="E7_0 E10_0" intLanes=":J9_0_0 :J9_1_0" shape="63.81,88.40 63.87,85.20 61.66,84.71 60.90,84.14 60.37,83.36 60.07,82.35 59.99,81.13 56.79,81.03 56.28,83.26 55.70,84.03 54.91,84.56 53.90,84.87 52.67,84.94 52.57,88.14">
        <request index="0" response="00" foes="10" cont="0"/>
        <request index="1" response="01" foes="01" cont="0"/>
    </junction>

    <junction id=":J8_2_0" type="internal" x="57.20" y="10.78" incLanes=":J8_0_0 E12_0" intLanes=":J8_1_0"/>

    <connection from="E0" to="E3" fromLane="0" toLane="0" via=":J1_0_0" dir="r" state="M"/>
    <connection from="E0" to="E2" fromLane="0" toLane="0" via=":J1_1_0" dir="s" state="M"/>
    <connection from="E0" to="E1" fromLane="0" toLane="0" via=":J1_2_0" dir="l" state="M"/>
    <connection from="E1" to="E10" fromLane="0" toLane="0" via=":J2_0_0" dir="r" state="M"/>
    <connection from="E10" to="E11" fromLane="0" toLane="0" via=":J9_1_0" dir="s" state="m"/>
    <connection from="E12" to="E13" fromLane="0" toLane="0" via=":J8_1_0" dir="s" state="M"/>
    <connection from="E2" to="E6" fromLane="0" toLane="0" via=":J4_0_0" dir="r" state="M"/>
    <connection from="E2" to="E4" fromLane="0" toLane="0" via=":J4_1_0" dir="s" state="M"/>
    <connection from="E2" to="E7" fromLane="0" toLane="0" via=":J4_2_0" dir="l" state="M"/>
    <connection from="E3" to="E12" fromLane="0" toLane="0" via=":J5_0_0" dir="l" state="M"/>
    <connection from="E4" to="E9" fromLane="0" toLane="0" via=":J6_0_0" dir="r" state="M"/>
    <connection from="E4" to="E5" fromLane="0" toLane="0" via=":J6_1_0" dir="s" state="M"/>
    <connection from="E4" to="E8" fromLane="0" toLane="0" via=":J6_2_0" dir="l" state="M"/>
    <connection from="E6" to="E13" fromLane="0" toLane="0" via=":J8_0_0" dir="l" state="m"/>
    <connection from="E7" to="E11" fromLane="0" toLane="0" via=":J9_0_0" dir="r" state="M"/>

    <connection from=":J1_0" to="E3" fromLane="0" toLane="0" dir="r" state="M"/>
    <connection from=":J1_1" to="E2" fromLane="0" toLane="0" dir="s" state="M"/>
    <connection from=":J1_2" to="E1" fromLane="0" toLane="0" dir="l" state="M"/>
    <connection from=":J2_0" to="E10" fromLane="0" toLane="0" dir="r" state="M"/>
    <connection from=":J4_0" to="E6" fromLane="0" toLane="0" dir="r" state="M"/>
    <connection from=":J4_1" to="E4" fromLane="0" toLane="0" dir="s" state="M"/>
    <connection from=":J4_2" to="E7" fromLane="0" toLane="0" dir="l" state="M"/>
    <connection from=":J5_0" to="E12" fromLane="0" toLane="0" dir="l" state="M"/>
    <connection from=":J6_0" to="E9" fromLane="0" toLane="0" dir="r" state="M"/>
    <connection from=":J6_1" to="E5" fromLane="0" toLane="0" dir="s" state="M"/>
    <connection from=":J6_2" to="E8" fromLane="0" toLane="0" dir="l" state="M"/>
    <connection from=":J8_0" to="E13" fromLane="0" toLane="0" via=":J8_2_0" dir="l" state="m"/>
    <connection from=":J8_2" to="E13" fromLane="0" toLane="0" dir="l" state="M"/>
    <connection from=":J8_1" to="E13" fromLane="0" toLane="0" dir="s" state="M"/>
    <connection from=":J9_0" to="E11" fromLane="0" toLane="0" dir="r" state="M"/>
    <connection from=":J9_1" to="E11" fromLane="0" toLane="0" dir="s" state="M"/>

</net>
