<?xml version="1.0" encoding="UTF-8"?>

<!-- generated on 2023-11-20 02:15:59 by Eclipse SUMO netedit Version 1.18.0
<configuration xmlns:xsi="http://www.w3.org/2001/XMLSchema-instance" xsi:noNamespaceSchemaLocation="http://sumo.dlr.de/xsd/neteditConfiguration.xsd">

    <input>
        <sumo-net-file value="C:\pytorch_testbed\sumo-dqn\test2.net.xml"/>
    </input>

    <output>
        <output-file value="C:\pytorch_testbed\sumo-dqn\test2.net.xml"/>
    </output>

    <processing>
        <geometry.min-radius.fix.railways value="false"/>
        <geometry.max-grade.fix value="false"/>
        <offset.disable-normalization value="true"/>
        <lefthand value="0"/>
    </processing>

    <junctions>
        <no-turnarounds value="true"/>
        <junctions.corner-detail value="5"/>
        <junctions.limit-turn-speed value="5.50"/>
        <rectangular-lane-cut value="0"/>
    </junctions>

    <pedestrian>
        <walkingareas value="0"/>
    </pedestrian>

</configuration>
-->

<net version="1.16" junctionCornerDetail="5" limitTurnSpeed="5.50" xmlns:xsi="http://www.w3.org/2001/XMLSchema-instance" xsi:noNamespaceSchemaLocation="http://sumo.dlr.de/xsd/net_file.xsd">

    <location netOffset="0.00,0.00" convBoundary="-900.00,600.00,300.00,800.10" origBoundary="-10000000000.00,-10000000000.00,10000000000.00,10000000000.00" projParameter="!"/>

    <edge id=":C_0" function="internal">
        <lane id=":C_0_0" index="0" speed="13.89" length="11.20" shape="-801.60,704.00 -801.60,692.80"/>
    </edge>
    <edge id=":C_1" function="internal">
        <lane id=":C_1_0" index="0" speed="6.51" length="9.03" shape="-801.60,704.00 -801.25,701.55 -800.20,699.80 -798.45,698.75 -796.00,698.40"/>
    </edge>
    <edge id=":D_0" function="internal">
        <lane id=":D_0_0" index="0" speed="3.90" length="2.58" shape="-801.60,600.00 -801.50,599.30 -801.20,598.80 -800.70,598.50 -800.00,598.40"/>
    </edge>
    <edge id=":E_0" function="internal">
        <lane id=":E_0_0" index="0" speed="6.53" length="9.11" shape="-707.20,798.49 -704.75,798.14 -703.00,797.07 -701.95,795.29 -701.59,792.80"/>
    </edge>
    <edge id=":E_1" function="internal">
        <lane id=":E_1_0" index="0" speed="13.89" length="11.20" shape="-707.20,798.49 -696.00,798.40"/>
    </edge>
    <edge id=":F_0" function="internal">
        <lane id=":F_0_0" index="0" speed="7.30" length="7.37" shape="-701.50,704.00 -700.96,701.55 -699.33,699.80 -697.02,698.91"/>
    </edge>
    <edge id=":F_3" function="internal">
        <lane id=":F_3_0" index="0" speed="7.30" length="4.26" shape="-697.02,698.91 -696.61,698.75 -692.81,698.41"/>
    </edge>
    <edge id=":F_1" function="internal">
        <lane id=":F_1_0" index="0" speed="6.51" length="9.03" shape="-698.40,692.80 -698.05,695.25 -697.00,697.00 -695.25,698.05 -692.81,698.41"/>
    </edge>
    <edge id=":F_2" function="internal">
        <lane id=":F_2_0" index="0" speed="13.89" length="14.29" shape="-707.10,698.40 -692.81,698.41"/>
    </edge>
    <edge id=":G_0" function="internal">
        <lane id=":G_0_0" index="0" speed="13.89" length="11.20" shape="-704.00,598.40 -692.80,598.40"/>
    </edge>
    <edge id=":G_1" function="internal">
        <lane id=":G_1_0" index="0" speed="6.51" length="9.03" shape="-704.00,598.40 -701.55,598.75 -699.80,599.80 -698.75,601.55 -698.40,604.00"/>
    </edge>
    <edge id=":H_0" function="internal">
        <lane id=":H_0_0" index="0" speed="6.51" length="9.03" shape="-598.40,792.80 -598.05,795.25 -597.00,797.00 -595.25,798.05 -592.80,798.40"/>
    </edge>
    <edge id=":H_1" function="internal">
        <lane id=":H_1_0" index="0" speed="13.89" length="11.20" shape="-604.00,798.40 -592.80,798.40"/>
    </edge>
    <edge id=":I_0" function="internal">
        <lane id=":I_0_0" index="0" speed="6.51" length="9.03" shape="-598.40,692.80 -598.05,695.25 -597.00,697.00 -595.25,698.05 -592.80,698.40"/>
    </edge>
    <edge id=":I_1" function="internal">
        <lane id=":I_1_0" index="0" speed="13.89" length="11.30" shape="-598.40,692.80 -598.40,704.10"/>
    </edge>
    <edge id=":I_2" function="internal">
        <lane id=":I_2_0" index="0" speed="13.89" length="11.20" shape="-604.00,698.50 -592.80,698.40"/>
    </edge>
    <edge id=":I_3" function="internal">
        <lane id=":I_3_0" index="0" speed="6.51" length="4.11" shape="-604.00,698.50 -601.55,698.85 -600.15,699.69"/>
    </edge>
    <edge id=":I_4" function="internal">
        <lane id=":I_4_0" index="0" speed="6.51" length="4.93" shape="-600.15,699.69 -599.80,699.90 -598.75,701.65 -598.40,704.10"/>
    </edge>
    <edge id=":J_0" function="internal">
        <lane id=":J_0_0" index="0" speed="13.89" length="11.20" shape="-604.00,598.40 -592.80,598.40"/>
    </edge>
    <edge id=":J_1" function="internal">
        <lane id=":J_1_0" index="0" speed="6.51" length="9.03" shape="-604.00,598.40 -601.55,598.75 -599.80,599.80 -598.75,601.55 -598.40,604.00"/>
    </edge>
    <edge id=":L_0" function="internal">
        <lane id=":L_0_0" index="0" speed="6.51" length="9.03" shape="-498.40,692.80 -498.05,695.25 -497.00,697.00 -495.25,698.05 -492.80,698.40"/>
    </edge>
    <edge id=":L_1" function="internal">
        <lane id=":L_1_0" index="0" speed="13.89" length="11.20" shape="-498.40,692.80 -498.40,704.00"/>
    </edge>
    <edge id=":L_2" function="internal">
        <lane id=":L_2_0" index="0" speed="13.89" length="11.20" shape="-504.00,698.40 -492.80,698.40"/>
    </edge>
    <edge id=":L_3" function="internal">
        <lane id=":L_3_0" index="0" speed="6.51" length="4.11" shape="-504.00,698.40 -501.55,698.75 -500.15,699.59"/>
    </edge>
    <edge id=":L_4" function="internal">
        <lane id=":L_4_0" index="0" speed="6.51" length="4.93" shape="-500.15,699.59 -499.80,699.80 -498.75,701.55 -498.40,704.00"/>
    </edge>
    <edge id=":M_0" function="internal">
        <lane id=":M_0_0" index="0" speed="3.90" length="2.58" shape="-500.00,598.40 -499.30,598.50 -498.80,598.80 -498.50,599.30 -498.40,600.00"/>
    </edge>

    <edge id="E11" from="J" to="I" priority="-1">
        <lane id="E11_0" index="0" speed="13.89" length="88.80" shape="-598.40,604.00 -598.40,692.80"/>
    </edge>
    <edge id="genE16" from="G" to="F" priority="-1">
        <lane id="genE16_0" index="0" speed="13.89" length="88.80" shape="-698.40,604.00 -698.40,692.80"/>
    </edge>
    <edge id="gne15" from="E" to="F" priority="-1" shape="-700.00,800.00 -699.90,700.10">
        <lane id="gne15_0" index="0" speed="13.89" length="88.80" shape="-701.59,792.80 -701.50,704.00"/>
    </edge>
    <edge id="gneE0" from="A" to="C" priority="-1">
        <lane id="gneE0_0" index="0" speed="13.89" length="92.80" shape="-900.00,698.40 -807.20,698.40"/>
    </edge>
    <edge id="gneE1" from="C" to="F" priority="-1">
        <lane id="gneE1_0" index="0" speed="13.89" length="88.90" shape="-796.00,698.40 -707.10,698.40"/>
    </edge>
    <edge id="gneE10" from="C" to="D" priority="-1">
        <lane id="gneE10_0" index="0" speed="13.89" length="92.80" shape="-801.60,692.80 -801.60,600.00"/>
    </edge>
    <edge id="gneE11" from="D" to="G" priority="-1">
        <lane id="gneE11_0" index="0" speed="13.89" length="96.00" shape="-800.00,598.40 -704.00,598.40"/>
    </edge>
    <edge id="gneE12" from="G" to="J" priority="-1">
        <lane id="gneE12_0" index="0" speed="13.89" length="88.80" shape="-692.80,598.40 -604.00,598.40"/>
    </edge>
    <edge id="gneE13" from="J" to="M" priority="-1">
        <lane id="gneE13_0" index="0" speed="13.89" length="92.80" shape="-592.80,598.40 -500.00,598.40"/>
    </edge>
    <edge id="gneE14" from="M" to="L" priority="-1">
        <lane id="gneE14_0" index="0" speed="13.89" length="92.80" shape="-498.40,600.00 -498.40,692.80"/>
    </edge>
    <edge id="gneE17" from="I" to="H" priority="-1">
        <lane id="gneE17_0" index="0" speed="13.89" length="88.70" shape="-598.40,704.10 -598.40,792.80"/>
    </edge>
    <edge id="gneE2" from="F" to="I" priority="-1" shape="-700.00,700.00 -599.90,700.10">
        <lane id="gneE2_0" index="0" speed="13.89" length="88.80" shape="-692.81,698.41 -604.00,698.50"/>
    </edge>
    <edge id="gneE3" from="I" to="L" priority="-1">
        <lane id="gneE3_0" index="0" speed="13.89" length="88.80" shape="-592.80,698.40 -504.00,698.40"/>
    </edge>
    <edge id="gneE4" from="L" to="N" priority="-1">
        <lane id="gneE4_0" index="0" speed="13.89" length="92.80" shape="-492.80,698.40 -400.00,698.40"/>
    </edge>
    <edge id="gneE5" from="B" to="C" priority="-1">
        <lane id="gneE5_0" index="0" speed="13.89" length="91.30" shape="-801.60,795.30 -801.60,704.00"/>
    </edge>
    <edge id="gneE6" from="B" to="E" priority="-1" shape="-800.00,800.00 -699.90,800.10">
        <lane id="gneE6_0" index="0" speed="13.89" length="91.30" shape="-798.50,798.40 -707.20,798.49"/>
    </edge>
    <edge id="gneE7" from="E" to="H" priority="-1">
        <lane id="gneE7_0" index="0" speed="13.89" length="92.00" shape="-696.00,798.40 -604.00,798.40"/>
    </edge>
    <edge id="gneE8" from="H" to="K" priority="-1" shape="-600.00,800.00 -400.00,800.00 300.00,800.00 -500.00,800.00">
        <lane id="gneE8_0" index="0" speed="13.89" length="91.30" shape="-592.80,798.40 -501.50,798.40"/>
    </edge>
    <edge id="gneE9" from="L" to="K" priority="-1">
        <lane id="gneE9_0" index="0" speed="13.89" length="91.30" shape="-498.40,704.00 -498.40,795.30"/>
    </edge>

    <junction id="A" type="dead_end" x="-900.00" y="700.00" incLanes="" intLanes="" shape="-900.00,700.00 -900.00,696.80"/>
    <junction id="B" type="dead_end" x="-800.00" y="800.00" incLanes="" intLanes="" shape="-798.50,800.00 -798.50,796.80 -799.33,796.63 -799.63,796.43 -799.83,796.13 -799.96,795.76 -800.00,795.30 -803.20,795.30 -802.68,797.91 -802.03,798.82 -801.11,799.48 -799.94,799.87"/>
    <junction id="C" type="priority" x="-800.00" y="700.00" incLanes="gneE5_0 gneE0_0" intLanes=":C_0_0 :C_1_0" shape="-803.20,704.00 -800.00,704.00 -799.56,701.78 -799.00,701.00 -798.22,700.44 -797.22,700.11 -796.00,700.00 -796.00,696.80 -798.22,696.36 -799.00,695.80 -799.56,695.02 -799.89,694.02 -800.00,692.80 -803.20,692.80 -803.64,695.02 -804.20,695.80 -804.98,696.36 -805.98,696.69 -807.20,696.80 -807.20,700.00 -804.98,700.44 -804.20,701.00 -803.64,701.78 -803.31,702.78">
        <request index="0" response="00" foes="00" cont="0"/>
        <request index="1" response="00" foes="00" cont="0"/>
    </junction>
    <junction id="D" type="priority" x="-800.00" y="600.00" incLanes="gneE10_0" intLanes=":D_0_0" shape="-803.20,600.00 -800.00,600.00 -800.00,596.80 -801.78,597.16 -802.40,597.60 -802.84,598.22 -803.11,599.02">
        <request index="0" response="0" foes="0" cont="0"/>
    </junction>
    <junction id="E" type="traffic_light" x="-700.00" y="800.00" incLanes="gneE6_0" intLanes=":E_0_0 :E_1_0" shape="-696.00,800.00 -696.00,796.80 -698.22,796.36 -699.00,795.80 -699.55,795.02 -699.88,794.02 -699.99,792.80 -703.19,792.80 -703.64,795.07 -704.20,795.87 -704.97,796.44 -705.97,796.78 -707.20,796.89 -707.20,800.09" rightOfWay="edgePriority">
        <request index="0" response="00" foes="00" cont="0"/>
        <request index="1" response="00" foes="00" cont="0"/>
    </junction>
    <junction id="F" type="priority" x="-700.00" y="700.00" incLanes="gne15_0 genE16_0 gneE1_0" intLanes=":F_3_0 :F_1_0 :F_2_0" shape="-703.10,704.00 -699.90,704.00 -699.11,701.78 -698.13,701.00 -696.75,700.45 -694.97,700.12 -692.81,700.01 -692.80,696.81 -695.02,696.36 -695.80,695.80 -696.36,695.03 -696.69,694.03 -696.80,692.80 -700.00,692.80 -700.79,695.02 -701.77,695.80 -703.15,696.36 -704.93,696.69 -707.10,696.80 -707.10,700.00 -704.88,700.44 -704.10,701.00 -703.55,701.78 -703.21,702.78">
        <request index="0" response="010" foes="110" cont="1"/>
        <request index="1" response="000" foes="101" cont="0"/>
        <request index="2" response="011" foes="011" cont="0"/>
    </junction>
    <junction id="G" type="priority" x="-700.00" y="600.00" incLanes="gneE11_0" intLanes=":G_0_0 :G_1_0" shape="-700.00,604.00 -696.80,604.00 -696.36,601.78 -695.80,601.00 -695.02,600.44 -694.02,600.11 -692.80,600.00 -692.80,596.80 -704.00,596.80 -704.00,600.00 -701.78,600.44 -701.00,601.00 -700.44,601.78 -700.11,602.78">
        <request index="0" response="00" foes="00" cont="0"/>
        <request index="1" response="00" foes="00" cont="0"/>
    </junction>
    <junction id="H" type="priority" x="-600.00" y="800.00" incLanes="gneE17_0 gneE7_0" intLanes=":H_0_0 :H_1_0" shape="-592.80,800.00 -592.80,796.80 -595.02,796.36 -595.80,795.80 -596.36,795.02 -596.69,794.02 -596.80,792.80 -600.00,792.80 -600.44,795.02 -601.00,795.80 -601.78,796.36 -602.78,796.69 -604.00,796.80 -604.00,800.00">
        <request index="0" response="00" foes="10" cont="0"/>
        <request index="1" response="01" foes="01" cont="0"/>
    </junction>
    <junction id="I" type="priority" x="-600.00" y="700.00" incLanes="E11_0 gneE2_0" intLanes=":I_0_0 :I_1_0 :I_2_0 :I_4_0" shape="-600.00,704.10 -596.80,704.10 -596.36,701.82 -595.80,701.02 -595.02,700.46 -594.02,700.11 -592.80,700.00 -592.80,696.80 -595.02,696.36 -595.80,695.80 -596.36,695.02 -596.69,694.02 -596.80,692.80 -600.00,692.80 -600.44,695.08 -601.00,695.87 -601.78,696.44 -602.78,696.78 -604.00,696.90 -604.00,700.10 -601.78,700.54 -601.00,701.10 -600.44,701.88 -600.11,702.88">
        <request index="0" response="0000" foes="0100" cont="0"/>
        <request index="1" response="0000" foes="1100" cont="0"/>
        <request index="2" response="0011" foes="0011" cont="0"/>
        <request index="3" response="0010" foes="0010" cont="1"/>
    </junction>
    <junction id="J" type="priority" x="-600.00" y="600.00" incLanes="gneE12_0" intLanes=":J_0_0 :J_1_0" shape="-600.00,604.00 -596.80,604.00 -596.36,601.78 -595.80,601.00 -595.02,600.44 -594.02,600.11 -592.80,600.00 -592.80,596.80 -604.00,596.80 -604.00,600.00 -601.78,600.44 -601.00,601.00 -600.44,601.78 -600.11,602.78">
        <request index="0" response="00" foes="00" cont="0"/>
        <request index="1" response="00" foes="00" cont="0"/>
    </junction>
    <junction id="K" type="dead_end" x="-500.00" y="800.00" incLanes="gneE8_0 gneE9_0" intLanes="" shape="-501.50,796.80 -501.50,800.00 -498.89,799.48 -497.97,798.83 -497.32,797.91 -496.93,796.74 -496.80,795.30 -500.00,795.30 -500.17,796.13 -500.38,796.42 -500.67,796.63 -501.04,796.76"/>
    <junction id="L" type="priority" x="-500.00" y="700.00" incLanes="gneE14_0 gneE3_0" intLanes=":L_0_0 :L_1_0 :L_2_0 :L_4_0" shape="-500.00,704.00 -496.80,704.00 -496.36,701.78 -495.80,701.00 -495.02,700.44 -494.02,700.11 -492.80,700.00 -492.80,696.80 -495.02,696.36 -495.80,695.80 -496.36,695.02 -496.69,694.02 -496.80,692.80 -500.00,692.80 -500.44,695.02 -501.00,695.80 -501.78,696.36 -502.78,696.69 -504.00,696.80 -504.00,700.00 -501.78,700.44 -501.00,701.00 -500.44,701.78 -500.11,702.78">
        <request index="0" response="0000" foes="0100" cont="0"/>
        <request index="1" response="0000" foes="1100" cont="0"/>
        <request index="2" response="0011" foes="0011" cont="0"/>
        <request index="3" response="0010" foes="0010" cont="1"/>
    </junction>
    <junction id="M" type="priority" x="-500.00" y="600.00" incLanes="gneE13_0" intLanes=":M_0_0" shape="-500.00,600.00 -496.80,600.00 -497.16,598.22 -497.60,597.60 -498.22,597.16 -499.02,596.89 -500.00,596.80">
        <request index="0" response="0" foes="0" cont="0"/>
    </junction>
    <junction id="N" type="dead_end" x="-400.00" y="700.00" incLanes="gneE4_0" intLanes="" shape="-400.00,696.80 -400.00,700.00"/>

    <junction id=":F_3_0" type="internal" x="-697.02" y="698.91" incLanes=":F_0_0 genE16_0" intLanes=":F_1_0 :F_2_0"/>
    <junction id=":I_4_0" type="internal" x="-600.15" y="699.69" incLanes=":I_3_0 E11_0" intLanes=":I_1_0"/>
    <junction id=":L_4_0" type="internal" x="-500.15" y="699.59" incLanes=":L_3_0 gneE14_0" intLanes=":L_1_0"/>

    <connection from="E11" to="gneE3" fromLane="0" toLane="0" via=":I_0_0" dir="r" state="M"/>
    <connection from="E11" to="gneE17" fromLane="0" toLane="0" via=":I_1_0" dir="s" state="M"/>
    <connection from="genE16" to="gneE2" fromLane="0" toLane="0" via=":F_1_0" dir="r" state="M"/>
    <connection from="gne15" to="gneE2" fromLane="0" toLane="0" via=":F_0_0" dir="l" state="m"/>
    <connection from="gneE1" to="gneE2" fromLane="0" toLane="0" via=":F_2_0" dir="s" state="m"/>
    <connection from="gneE10" to="gneE11" fromLane="0" toLane="0" via=":D_0_0" dir="l" state="M"/>
    <connection from="gneE11" to="gneE12" fromLane="0" toLane="0" via=":G_0_0" dir="s" state="M"/>
    <connection from="gneE11" to="genE16" fromLane="0" toLane="0" via=":G_1_0" dir="l" state="M"/>
    <connection from="gneE12" to="gneE13" fromLane="0" toLane="0" via=":J_0_0" dir="s" state="M"/>
    <connection from="gneE12" to="E11" fromLane="0" toLane="0" via=":J_1_0" dir="l" state="M"/>
    <connection from="gneE13" to="gneE14" fromLane="0" toLane="0" via=":M_0_0" dir="l" state="M"/>
    <connection from="gneE14" to="gneE4" fromLane="0" toLane="0" via=":L_0_0" dir="r" state="M"/>
    <connection from="gneE14" to="gneE9" fromLane="0" toLane="0" via=":L_1_0" dir="s" state="M"/>
    <connection from="gneE17" to="gneE8" fromLane="0" toLane="0" via=":H_0_0" dir="r" state="M"/>
    <connection from="gneE2" to="gneE3" fromLane="0" toLane="0" via=":I_2_0" dir="s" state="m"/>
    <connection from="gneE2" to="gneE17" fromLane="0" toLane="0" via=":I_3_0" dir="l" state="m"/>
    <connection from="gneE3" to="gneE4" fromLane="0" toLane="0" via=":L_2_0" dir="s" state="m"/>
    <connection from="gneE3" to="gneE9" fromLane="0" toLane="0" via=":L_3_0" dir="l" state="m"/>
    <connection from="gneE5" to="gneE10" fromLane="0" toLane="0" via=":C_0_0" dir="s" state="M"/>
    <connection from="gneE5" to="gneE1" fromLane="0" toLane="0" via=":C_1_0" dir="l" state="M"/>
    <connection from="gneE6" to="gne15" fromLane="0" toLane="0" uncontrolled="1" via=":E_0_0" dir="r" state="M"/>
    <connection from="gneE6" to="gneE7" fromLane="0" toLane="0" uncontrolled="1" via=":E_1_0" dir="s" state="M"/>
    <connection from="gneE7" to="gneE8" fromLane="0" toLane="0" via=":H_1_0" dir="s" state="m"/>

    <connection from=":C_0" to="gneE10" fromLane="0" toLane="0" dir="s" state="M"/>
    <connection from=":C_1" to="gneE1" fromLane="0" toLane="0" dir="l" state="M"/>
    <connection from=":D_0" to="gneE11" fromLane="0" toLane="0" dir="l" state="M"/>
    <connection from=":E_0" to="gne15" fromLane="0" toLane="0" dir="r" state="M"/>
    <connection from=":E_1" to="gneE7" fromLane="0" toLane="0" dir="s" state="M"/>
    <connection from=":F_0" to="gneE2" fromLane="0" toLane="0" via=":F_3_0" dir="l" state="m"/>
    <connection from=":F_3" to="gneE2" fromLane="0" toLane="0" dir="l" state="M"/>
    <connection from=":F_1" to="gneE2" fromLane="0" toLane="0" dir="r" state="M"/>
    <connection from=":F_2" to="gneE2" fromLane="0" toLane="0" dir="s" state="M"/>
    <connection from=":G_0" to="gneE12" fromLane="0" toLane="0" dir="s" state="M"/>
    <connection from=":G_1" to="genE16" fromLane="0" toLane="0" dir="l" state="M"/>
    <connection from=":H_0" to="gneE8" fromLane="0" toLane="0" dir="r" state="M"/>
    <connection from=":H_1" to="gneE8" fromLane="0" toLane="0" dir="s" state="M"/>
    <connection from=":I_0" to="gneE3" fromLane="0" toLane="0" dir="r" state="M"/>
    <connection from=":I_1" to="gneE17" fromLane="0" toLane="0" dir="s" state="M"/>
    <connection from=":I_2" to="gneE3" fromLane="0" toLane="0" dir="s" state="M"/>
    <connection from=":I_3" to="gneE17" fromLane="0" toLane="0" via=":I_4_0" dir="l" state="m"/>
    <connection from=":I_4" to="gneE17" fromLane="0" toLane="0" dir="l" state="M"/>
    <connection from=":J_0" to="gneE13" fromLane="0" toLane="0" dir="s" state="M"/>
    <connection from=":J_1" to="E11" fromLane="0" toLane="0" dir="l" state="M"/>
    <connection from=":L_0" to="gneE4" fromLane="0" toLane="0" dir="r" state="M"/>
    <connection from=":L_1" to="gneE9" fromLane="0" toLane="0" dir="s" state="M"/>
    <connection from=":L_2" to="gneE4" fromLane="0" toLane="0" dir="s" state="M"/>
    <connection from=":L_3" to="gneE9" fromLane="0" toLane="0" via=":L_4_0" dir="l" state="m"/>
    <connection from=":L_4" to="gneE9" fromLane="0" toLane="0" dir="l" state="M"/>
    <connection from=":M_0" to="gneE14" fromLane="0" toLane="0" dir="l" state="M"/>

</net>
